power-flow-agent/results/ieee14/2026-09-21/gpt-5.6-sol/pfagent/traces/01_case14-ambiguous-003-s0.transcript.txt
==============================================================================
TRANSCRIPT  pfagent  |  openrouter:openai/gpt-5.6-sol  |  case14  |  case14-ambiguous-003-s0  run 0
==============================================================================
date: 2026-09-21   seed: 0   difficulty: ambiguous   tool variant: load_split

[system]   (hash 7da5e2a37ec4, from methods/pfagent/method.json prompt_files)
You are a power system power-flow analysis assistant. You help the user complete power system analysis tasks from natural-language requests.

## What you can do
You complete tasks by calling tool functions:
1. Load an IEEE standard test system (14, 30, 57, 118, 300 buses)
2. Run AC power flow
3. Modify the load at a bus and re-solve
4. Disconnect or reconnect a line and re-solve
5. Query the network status
6. Run an N-1 contingency analysis (disconnect branches one at a time and rank the worst cases)
7. Generate remedial-action suggestions (what-if load shedding or voltage adjustment) to reduce violation risk

## Key rules
- Never fabricate any numerical result. Every voltage, power, loss, or loading value must come from a tool return value.
- If a tool reports an error or a non-converged power flow, say so explicitly and do not report numbers for that state.
- If the request is ambiguous, state the interpretation you are using.
- Bus and line identifiers in the request are MATPOWER 1-based ids; pass them to the tools as given, unless the request itself states a different indexing convention for that identifier (e.g. "(0-based)"), in which case convert it to the MATPOWER 1-based id before calling any tool.
- After a network modification, re-solve before reporting any value.
- Always reply in English.

## Reply format
After each analysis, reply in this structure:
1. One-sentence summary
2. Key numbers (total load, total generation, total losses, voltage range) taken from the tool outputs
3. Violations, if any
4. Suggested next step

[user]
Load case14 and disconnect the line between bus ten and bus eleven.

[tools available to the model]   (function-calling schema, --tool-variant load_split; enum values and defaults as sent)
  load_case(case_name: string* in {case14, case30, case57, case118, case300})  Load IEEE test case.
  run_powerflow()  Run power flow on current case.
  disconnect_line(from_bus: integer*, to_bus: integer*)  Disconnect line/branch between two buses and recompute.
  reconnect_line(from_bus: integer*, to_bus: integer*)  Reconnect line/branch between two buses and recompute.
  get_most_loaded_branch()  Get most loaded branch.
  run_n1_contingency(top_k: integer (default 5), criteria: string in {max_violations, max_overload, min_voltage} (default max_violations), max_candidates: integer (default 0))  Run N-1 contingency analysis.
  recommend_remedial_actions(max_actions: integer (default 5), allow_load_shed: boolean (default True), allow_voltage_control: boolean (default True), include_best_comparison: boolean (default True))  Recommend remedial actions.
  apply_remedial_action(action_index: integer*, confirmed: boolean (default False))  Apply one remedial action by index.
  get_status()  Get current network status.
  generate_plot(plot_type: string* in {voltage_heatmap, flow_diagram, violation_overview, comparison})  Generate one plot.
  set_active_load(bus_id: integer*, p_mw: number*)  Set a bus's active load (MW) and recompute. Use this when the request states only an active-power value. This tool has no reactive-power argument: the bus's present reactive load is always left unchanged. If the request also states a reactive-power value, use set_load instead.
  set_load(bus_id: integer*, p_mw: number*, q_mvar: number*)  Set a bus's active and reactive load (MW, Mvar) and recompute. Use this only when the request states both values. If the request states only an active-power value, use set_active_load instead -- do not invent a reactive-power value here to fill this in.

--- round 1 ---
[assistant]   (925 in / 37 out tokens, 1.7 s)
(no text)
tool_call  load_case(case_name="case14")
[tool load_case]   (gate: not applied)
{"case_name": "case14", "n_buses": 14, "n_generators": 5, "n_lines": 20, "n_loads": 11, "total_load_mw": 253.84578240591338, "total_gen_capacity_mw": 772.4000000000001}

--- round 2 ---
[assistant]   (1026 in / 24 out tokens, 1.2 s)
(no text)
tool_call  disconnect_line(from_bus=10, to_bus=11)
[tool disconnect_line]   (gate: pass)
{"case_name": "case14", "converged": true, "bus_voltages": [{"bus_id": 1, "vm_pu": 1.06, "va_deg": 0.0, "is_violation": true, "violation_type": "overvoltage"}, {"bus_id": 2, "vm_pu": 1.045, "va_deg": -4.782856812869876, "is_violation": false, "violation_type": null}, {"bus_id": 3, "vm_pu": 1.01, "va_deg": -12.0551659985658, "is_violation": false, "violation_type": null}, {"bus_id": 4, "vm_pu": 1.0157419734288047, "va_deg": -10.098239471018488, "is_violation": false, "violation_type": null}, {"bus_id": 5, "vm_pu": 1.0184205825341872, "va_deg": -8.587758916376728, "is_violation": false, "violation_type": null}, {"bus_id": 6, "vm_pu": 1.0700000000000003, "va_deg": -14.081634232730245, "is_violation": true, "violation_type": "overvoltage"}, {"bus_id": 7, "vm_pu": 1.0572704509026423, "va_deg": -13.599167042243408, "is_violation": true, "violation_type": "overvoltage"}, {"bus_id": 8, "vm_pu": 1.09, "va_deg": -13.599167042243412, "is_violation": true, "violation_type": "overvoltage"}, {"bus_id": 9, "vm_pu": 1.0482073147238065, "va_deg": -15.42314741015237, "is_violation": false, "violation_type": null}, {"bus_id": 10, "vm_pu": 1.0401332881077068, "va_deg": -15.74988139616134, "is_violation": false, "violation_type": null}, {"bus_id": 11, "vm_pu": 1.0636381828880532, "va_deg": -14.340310952357196, "is_violation": true, "violation_type": "overvoltage"}, {"bus_id": 12, "vm_pu": 1.0535994495050351, "va_deg": -15.047549453792575, "is_violation": true, "violation_type": "overvoltage"}, {"bus_id": 13, "vm_pu": 1.0476219805727929, "va_deg": -15.172079811938497, "is_violation": false, "violation_type": null}, {"bus_id": 14, "vm_pu": 1.028723023241609, "va_deg": -16.38541963590218, "is_violation": false, "violation_type": null}], "line_flows": [{"line_id": 0, "from_bus": 1, "to_bus": 2, "p_from_mw": 150.8462446073461, "q_from_mvar": -18.98257286516845, "loading_percent": 1.4487892295883087, "is_violation": false}, {"line_id": 1, "from_bus": 1, "to_bus": 5, "p_from_mw": 74.03083976298575, "q_from_mvar": 4.489635090066349, "loading_percent": 0.7079674638713186, "is_violation": false}, {"line_id": 2, "from_bus": 2, "to_bus": 3, "p_from_mw": 69.00277928239512, "q_from_mvar": 3.993731641193205, "loading_percent": 0.6694315476512882, "is_violation": false}, {"line_id": 3, "from_bus": 2, "to_bus": 4, "p_from_mw": 56.228873707770866, "q_from_mvar": -0.45874432781753693, "loading_percent": 0.5435285391113265, "is_violation": false}, {"line_id": 4, "from_bus": 2, "to_bus": 5, "p_from_mw": 41.80503672262235, "q_from_mvar": 1.7416614717430137, "loading_percent": 0.4063599911852471, "is_violation": false}, {"line_id": 5, "from_bus": 3, "to_bus": 4, "p_from_mw": -18.790297339518315, "q_from_mvar": 3.668196024967991, "loading_percent": 0.19418590185242032, "is_violation": false}, {"line_id": 6, "from_bus": 4, "to_bus": 5, "p_from_mw": -60.45570793453191, "q_from_mvar": 13.558567842961425, "loading_percent": 0.6161338107582932, "is_violation": false}, {"line_id": 7, "from_bus": 6, "to_bus": 11, "p_from_mw": 3.4367007093077966, "q_from_mvar": 1.7871115459955653, "loading_percent": 0.036567425777563695, "is_violation": false}, {"line_id": 8, "from_bus": 6, "to_bus": 12, "p_from_mw": 8.738045182569614, "q_from_mvar": 2.7242303816691855, "loading_percent": 0.08640480521450794, "is_violation": false}, {"line_id": 9, "from_bus": 6, "to_bus": 13, "p_from_mw": 20.501886875869765, "q_from_mvar": 8.125806564336136, "loading_percent": 0.2081892067223171, "is_violation": false}, {"line_id": 10, "from_bus": 9, "to_bus": 10, "p_from_mw": 9.753852065124, "q_from_mvar": 6.364829528942511, "loading_percent": 0.11223425121126987, "is_violation": false}, {"line_id": 11, "from_bus": 9, "to_bus": 14, "p_from_mw": 8.41536827432488, "q_from_mvar": 3.6537009500550486, "loading_percent": 0.08840788562513827, "is_violation": false}, {"line_id": 12, "from_bus": 10, "to_bus": 11, "p_from_mw": 0.0, "q_from_mvar": 0.0, "loading_percent": 0.0, "is_violation": false}, {"line_id": 13, "from_bus": 12, "to_bus": 13, "p_from_mw": 2.10845263422049, "q_from_mvar": 0.8217287882016167, "loading_percent": 0.021694948908396353, "is_violation": false}, {"line_id": 14, "from_bus": 13, "to_bus": 14, "p_from_mw": 7.561531791510889, "q_from_mvar": 2.044618434070862, "loading_percent": 0.07552540578609032, "is_violation": false}, {"line_id": 100000, "from_bus": 4, "to_bus": 7, "p_from_mw": 32.064560076507334, "q_from_mvar": -8.297209753380159, "loading_percent": 0.3293674687741422, "is_violation": false}, {"line_id": 100001, "from_bus": 4, "to_bus": 9, "p_from_mw": 18.33392885148528, "q_from_mvar": 0.8582226639772065, "loading_percent": 0.18252075135623014, "is_violation": false}, {"line_id": 100002, "from_bus": 5, "to_bus": 6, "p_from_mw": 44.41712991831073, "q_from_mvar": 11.984803323416712, "loading_percent": 0.45629794403629753, "is_violation": false}, {"line_id": 100003, "from_bus": 7, "to_bus": 8, "p_from_mw": 4.9214162461348294e-14, "q_from_mvar": -19.644612621063754, "loading_percent": 0.18768180870503473, "is_violation": false}, {"line_id": 100004, "from_bus": 7, "to_bus": 9, "p_from_mw": 32.064560076095425, "q_from_mvar": 9.220708536770553, "loading_percent": 0.31875500681362945, "is_violation": false}], "total_generation_mw": 266.5103144221321, "total_load_mw": 253.84578240591338, "total_loss_mw": 12.664532024072598, "voltage_violations": [{"bus_id": 1, "vm_pu": 1.06, "va_deg": 0.0, "is_violation": true, "violation_type": "overvoltage"}, {"bus_id": 6, "vm_pu": 1.0700000000000003, "va_deg": -14.081634232730245, "is_violation": true, "violation_type": "overvoltage"}, {"bus_id": 7, "vm_pu": 1.0572704509026423, "va_deg": -13.599167042243408, "is_violation": true, "violation_type": "overvoltage"}, {"bus_id": 8, "vm_pu": 1.09, "va_deg": -13.599167042243412, "is_violation": true, "violation_type": "overvoltage"}, {"bus_id": 11, "vm_pu": 1.0636381828880532, "va_deg": -14.340310952357196, "is_violation": true, "violation_type": "overvoltage"}, {"bus_id": 12, "vm_pu": 1.0535994495050351, "va_deg": -15.047549453792575, "is_violation": true, "violation_type": "overvoltage"}], "thermal_violations": [], "summary_text": "", "solver_backend": "pandapower", "llm_prompt": null, "llm_response": null}

--- round 3 ---
[assistant]   (3595 in / 205 out tokens, 3.5 s)
The IEEE 14-bus case was loaded, line 10–11 disconnected, and the AC power flow converged successfully.

**Key numbers**
- Total load: **253.846 MW**
- Total generation: **266.510 MW**
- Total losses: **12.665 MW**
- Voltage range: **1.010 pu** at bus 3 to **1.090 pu** at bus 8

**Violations**
- Overvoltage at buses **1, 6, 7, 8, 11, and 12**
- No thermal violations

**Suggested next step:** Evaluate voltage-control remedial actions or run an N-1 contingency analysis on the modified network.

[final answer]
The IEEE 14-bus case was loaded, line 10–11 disconnected, and the AC power flow converged successfully.

**Key numbers**
- Total load: **253.846 MW**
- Total generation: **266.510 MW**
- Total losses: **12.665 MW**
- Voltage range: **1.010 pu** at bus 3 to **1.090 pu** at bus 8

**Violations**
- Overvoltage at buses **1, 6, 7, 8, 11, and 12**
- No thermal violations

**Suggested next step:** Evaluate voltage-control remedial actions or run an N-1 contingency analysis on the modified network.

[verification gate]   outcome: pass_first after 1 attempt(s)
attempt 1: pass
  V1  converged              pass  residual 0
  V2  balance                pass  residual 7.85e-09
  V3  no_isolated_buses      pass  residual 0
  V4  faithfulness           pass  residual 0
  V5  currency               pass  residual 0
  V6  argument_grounding     pass  every mutating-tool argument traces to the request or a prior tool output
  V7  claims_from_tools      pass  answer matches the agent's own last solved state
